*HEADING
Preproc PINION_ROTOR_SunTooth_1_1_SunTooth_1_1_s1
*MATERIAL,NAME=GEARMATL
*ELASTIC,TYPE=ISOTROPIC
206000,0.3
*NODE
1,2.030855334,32.38212963,-22.5
2,3.132937768,32.27515087,-22.5
3,3.31117532,34.24563801,-22.5
4,2.178565291,34.73737518,-22.5
5,2.030868147,32.38212883,-19.6875
6,3.132944174,32.27515047,-19.6875
7,3.311219823,34.24600771,-19.6875
8,2.178599231,34.73769632,-19.6875
9,3.489412872,36.21612515,-22.5
10,2.326275248,37.09262073,-22.5
11,3.489495471,36.21686495,-19.6875
12,2.326330314,37.0932638,-19.6875
13,4.235020201,32.16817211,-22.5
14,4.443785349,33.75390084,-22.5
15,4.235020201,32.16817211,-19.6875
16,4.443840415,33.75431911,-19.6875
17,4.652550497,35.33962957,-22.5
18,4.652660628,35.3404661,-19.6875
19,2.030879252,32.38212813,-16.875
20,3.132949726,32.27515012,-16.875
** ... 2955 like lines cut
*NSET,NSET=FREENDS
3,4,7,8,9,10,11,12,
21,22,23,24,28,29,30,31,
32,33,34,35,40,41,42,43,
46,47,48,49,50,51,52,53,
58,59,60,61,64,65,66,67,
68,69,70,71,72,73,74,75,
76,77,78,79,80,81,82,83,
84,85,86,87,88,89,90,91,
92,93,94,95,96,97,98,99,
100,101,102,103,104,105,106,107,
108,109,110,111,112,113,114,115,
116,117,118,119,120,121,122,123,
124,125,126,127,128,129,130,131,
132,133,134,135,136,137,138,139,
140,141,142,143,144,145,146,147,
148,149,150,151,152,153,154,155,
156,157,158,159,160,161,162,163,
164,165,166,167,168,169,170,171,
172,173,174,175,176,177,178,179,
180,181,182,183,184,185,186,187,
** ... 308 like lines cut
*NSET,NSET=FIXDNDS
1,2,5,6,13,14,15,16,
17,18,19,20,25,26,27,36,
37,38,39,44,45,54,55,56,
57,62,63,190,191,194,195,202,
203,286,287,290,291,298,299,394,
395,397,398,399,401,403,405,406,
407,409,411,413,415,417,419,421,
423,425,427,429,431,437,439,526,
527,532,533,534,535,536,541,542,
543,548,549,554,555,560,561,566,
567,652,653,658,659,716,717,722,
723,788,789,791,793,794,795,797,
799,801,803,805,807,809,811,815,
817,876,877,882,883,884,885,886,
891,892,893,898,899,904,905,910,
911,916,917,1002,1003,1008,1009,1066,
1067,1072,1073,1138,1139,1141,1143,1144,
1145,1147,1149,1151,1153,1155,1157,1159,
1161,1165,1167,1226,1227,1232,1233,1234,
1235,1236,1241,1242,1243,1248,1249,1254,
** ... 25 like lines cut
*ELEMENT,TYPE=C3D8
1,1,2,3,4,5,6,7,8
2,4,3,9,10,8,7,11,12
3,2,13,14,3,6,15,16,7
4,3,14,17,9,7,16,18,11
5,5,6,7,8,19,20,21,22
6,8,7,11,12,22,21,23,24
7,6,15,16,7,20,25,26,21
8,7,16,18,11,21,26,27,23
9,10,9,28,29,12,11,30,31
10,29,28,32,33,31,30,34,35
11,9,17,36,28,11,18,37,30
12,28,36,38,32,30,37,39,34
13,12,11,30,31,24,23,40,41
14,31,30,34,35,41,40,42,43
15,11,18,37,30,23,27,44,40
16,30,37,39,34,40,44,45,42
17,33,32,46,47,35,34,48,49
18,47,46,50,51,49,48,52,53
19,32,38,54,46,34,39,55,48
20,46,54,56,50,48,55,57,52
** ... 2284 like lines cut
*ELSET,ELSET=GEARELMS
1,2,3,4,5,6,7,8,
9,10,11,12,13,14,15,16,
17,18,19,20,21,22,23,24,
25,26,27,28,29,30,31,32,
33,34,35,36,37,38,39,40,
41,42,43,44,45,46,47,48,
49,50,51,52,53,54,55,56,
57,58,59,60,61,62,63,64,
65,66,67,68,69,70,71,72,
73,74,75,76,77,78,79,80,
81,82,83,84,85,86,87,88,
89,90,91,92,93,94,95,96,
97,98,99,100,101,102,103,104,
105,106,107,108,109,110,111,112,
113,114,115,116,117,118,119,120,
121,122,123,124,125,126,127,128,
129,130,131,132,133,134,135,136,
137,138,139,140,141,142,143,144,
145,146,147,148,149,150,151,152,
153,154,155,156,157,158,159,160,
** ... 268 like lines cut
*SOLID SECTION,MATERIAL=GEARMATL,ELSET=GEARELMS
*BOUNDARY
FIXDNDS,1,3
